LTspice 24.0.12 for Windows
Circuit: * C:\Users\ANANYA DEVRAJ\Desktop\arys-automotive-protection\schematics\automotive_protection_circuit.asc
Start Time: Sun May 24 12:23:46 2026
solver = Normal
Maximum thread count: 12
tnom = 27
temp = 27
method = modified trap
Direct Newton iteration for .op point succeeded.
Total elapsed time: 0.128 seconds.

